6

 C        -0.040183       -2.268641        0.007444
 O         1.022259       -1.800914        0.380352
 N        -1.141418       -1.548343       -0.304100
 H        -1.989089       -2.012407       -0.568951
 H        -1.132499       -0.542737       -0.193769
 H        -0.195437       -3.350818       -0.118190
