39

H -1.902834 3.364174 -1.576849
C -2.612847 3.049204 -0.807849
H -3.607851 2.954245 -1.249849
H -2.637814 3.835205 -0.046849
C -2.106900 1.770183 -0.168849
O -0.929905 1.631134 0.163151
N -3.027941 0.773221 -0.001849
H -3.996931 1.002261 -0.176849
C -2.770989 -0.400790 0.842151
H -2.545976 -0.075799 1.864151
C -3.999027 -1.314739 0.852151
H -4.240042 -1.671729 -0.153849
H -3.803063 -2.182747 1.486151
H -4.872005 -0.791703 1.258151
C -1.510021 -1.173842 0.410151
O -0.729039 -1.608874 1.243151
N -1.397031 -1.425846 -0.922849
H -2.033012 -0.957820 -1.551849
C -0.258062 -2.156893 -1.465849
H -0.231104 -3.170895 -1.060849
H -0.380064 -2.215888 -2.550849
C 1.123964 -1.546951 -1.151849
O 2.071934 -2.268990 -0.892849
N 1.231019 -0.197955 -1.361849
H 0.374041 0.340080 -1.298849
C 2.460049 0.516994 -1.001849
H 3.283029 0.049960 -1.545849
C 2.337110 1.989999 -1.397849
H 1.502129 2.468034 -0.875849
H 3.257131 2.518961 -1.132849
H 2.181114 2.087006 -2.476849
C 2.874043 0.376977 0.483151
O 4.054037 0.223929 0.779151
N 1.876051 0.570018 1.389151
H 0.920052 0.600058 1.062151
C 2.089043 0.386010 2.813151
H 3.158037 0.235966 2.971151
H 1.764080 1.269023 3.376151
H 1.542007 -0.488968 3.181151
