39

H -7.569044 -0.937848 -0.872932
C -6.756047 -1.135862 -0.174932
H -6.406065 -2.164868 -0.309932
H -7.129046 -1.042856 0.850068
C -5.636030 -0.138882 -0.438932
O -5.707015 0.728120 -1.302932
N -4.543032 -0.283901 0.368068
H -4.479045 -1.036902 1.041068
C -3.352018 0.539079 0.228068
H -3.371011 0.944079 -0.787932
C -3.321998 1.699078 1.238068
H -3.319005 1.309078 2.260068
H -2.427987 2.316063 1.098068
H -4.203987 2.328094 1.097068
C -2.145034 -0.381942 0.439068
O -2.126048 -1.190943 1.366068
N -1.129032 -0.238960 -0.448932
H -1.175020 0.443041 -1.193932
C 0.117956 -0.970981 -0.335932
H 0.184949 -1.366983 0.680068
H 0.141941 -1.821982 -1.030932
C 1.265972 -0.028001 -0.698932
O 1.172985 0.717000 -1.672932
N 2.340972 -0.059020 0.123068
H 2.390960 -0.699021 0.906068
C 3.544985 0.723959 -0.126932
H 3.538990 0.976959 -1.190932
C 3.573008 2.013959 0.707068
H 3.565003 1.773959 1.774068
H 4.473018 2.597943 0.491068
H 2.697018 2.623974 0.471068
C 4.735970 -0.175062 0.235068
O 4.727958 -0.836062 1.270068
N 5.767969 -0.190080 -0.642932
H 5.701979 0.348922 -1.491932
C 6.965956 -0.977100 -0.387932
H 6.715937 -2.037096 -0.278932
H 7.654958 -0.854112 -1.224932
H 7.457961 -0.651109 0.534068
