43

H -2.282900 -2.744957 -2.903963
C -3.020902 -2.573969 -2.116963
H -3.280886 -3.548973 -1.691963
H -3.920910 -2.131984 -2.550963
C -2.389916 -1.718959 -1.032963
O -1.222914 -1.876940 -0.678963
N -3.192932 -0.746972 -0.496963
H -4.172932 -0.786988 -0.738963
C -2.869943 -0.066967 0.769037
H -3.598957 0.748021 0.861037
C -2.976928 -0.986968 1.986037
H -2.267915 -1.811957 1.899037
H -2.738937 -0.433965 2.896037
H -3.990922 -1.388985 2.067037
C -1.477954 0.601056 0.693037
O -0.663953 0.497069 1.603037
N -1.249966 1.329060 -0.432963
H -2.025969 1.480047 -1.059963
C -0.054980 2.154079 -0.617963
H -0.096986 2.515079 -1.651963
C -0.033000 3.372080 0.301037
H -0.049994 3.041079 1.346037
H 0.902992 3.915095 0.131037
O -1.181012 4.154061 -0.035963
H -1.186025 4.927061 0.541037
C 1.244034 1.325101 -0.474963
O 2.223026 1.781117 0.100037
N 1.242053 0.149101 -1.166963
H 0.337059 -0.238914 -1.402963
C 2.376068 -0.785881 -1.144963
H 2.014083 -1.680887 -1.664963
C 3.595059 -0.234861 -1.883963
H 3.957045 0.668145 -1.390963
H 4.398071 -0.973848 -1.872963
H 3.329056 -0.001865 -2.919963
C 2.755076 -1.250875 0.288037
O 3.925078 -1.360856 0.633037
N 1.698082 -1.640892 1.054037
H 0.766078 -1.394907 0.747037
C 1.861088 -2.006889 2.448037
H 1.423076 -1.248896 3.107037
H 1.387104 -2.972897 2.656037
H 2.930090 -2.083872 2.648037
