43

H -7.257907 -0.032979 -1.032012
C -6.385903 -0.676973 -0.916012
H -6.014901 -0.932971 -1.915012
H -6.673897 -1.602975 -0.409012
C -5.305908 0.087034 -0.167012
O -5.208916 1.305034 -0.214012
N -4.457903 -0.696961 0.586988
H -4.403897 -1.670961 0.313988
C -3.196906 -0.142953 1.052988
H -3.400913 0.890046 1.348988
C -2.653901 -0.948949 2.241988
H -2.516894 -1.997948 1.958988
H -1.679904 -0.566943 2.557988
H -3.350902 -0.901954 3.081988
C -2.156906 -0.150946 -0.083012
O -2.157901 -1.018946 -0.949012
N -1.226913 0.848060 -0.024012
H -1.179916 1.405060 0.818988
C 0.022088 0.740068 -0.749012
H -0.216909 0.275066 -1.711012
C 0.618079 2.123072 -1.014012
H 1.490080 2.017078 -1.676012
H -0.139925 2.734067 -1.525012
O 0.996075 2.677074 0.238988
H 1.399070 3.539077 0.078988
C 1.020094 -0.168926 -0.001012
O 0.994095 -0.311926 1.212988
N 1.896098 -0.840920 -0.820012
H 1.995096 -0.465919 -1.756012
C 3.144101 -1.347912 -0.267012
H 2.904104 -1.738913 0.725988
C 3.714109 -2.459908 -1.157012
H 3.954106 -2.068907 -2.151012
H 4.633111 -2.867902 -0.727012
H 2.986114 -3.266913 -1.264012
C 4.155094 -0.186905 -0.149012
O 4.166088 0.725095 -0.971012
N 5.056095 -0.303899 0.863988
H 4.892099 -1.009900 1.564988
C 6.085088 0.692107 1.112988
H 5.853084 1.300106 1.994988
H 7.058091 0.214114 1.258988
H 6.129084 1.343108 0.239988
